* NGSPICE file created from Final_7_Flat.ext - technology: sky130A

.subckt Final_5_NSO VB OUT VP VCT VN
X0 a_6260_5590.t2 a_n1606_2236.t3 VP.t12 VP.t2 sky130_fd_pr__pfet_01v8 ad=0p pd=0u as=0p ps=0u w=5e+06u l=150000u
X1 VP.t1 VCT.t0 a_9348_5588.t1 VP.t0 sky130_fd_pr__pfet_01v8 ad=0p pd=0u as=0p ps=0u w=5e+06u l=150000u
X2 a_4518_1814.t1 a_1562_1830.t3 a_3194_252.t0 VN.t9 sky130_fd_pr__nfet_01v8 ad=0p pd=0u as=0p ps=0u w=5e+06u l=150000u
X3 a_274_5606.t0 a_n1606_2236.t4 VP.t11 VP.t9 sky130_fd_pr__pfet_01v8 ad=0p pd=0u as=0p ps=0u w=5e+06u l=150000u
X4 a_4490_3828.t2 a_1534_3844.t3 a_9312_250.t1 VN.t1 sky130_fd_pr__nfet_01v8 ad=0p pd=0u as=0p ps=0u w=5e+06u l=150000u
X5 a_3230_5590.t2 VCT.t1 VP.t4 VP.t2 sky130_fd_pr__pfet_01v8 ad=0p pd=0u as=0p ps=0u w=5e+06u l=150000u
X6 a_n1698_2236.t1 a_n1698_2236.t0 VN.t11 VN.t0 sky130_fd_pr__nfet_01v8 ad=0p pd=0u as=0p ps=0u w=5e+06u l=200000u
X7 a_n1606_2236.t1 a_n1606_2236.t0 VP.t10 VP.t9 sky130_fd_pr__pfet_01v8 ad=0p pd=0u as=0p ps=0u w=5e+06u l=200000u
X8 VP.t20 VCT.t2 a_12504_5562.t1 VP.t19 sky130_fd_pr__pfet_01v8 ad=0p pd=0u as=0p ps=0u w=5e+06u l=150000u
X9 a_12504_5562.t2 a_4518_1814.t3 OUT.t2 VP.t13 sky130_fd_pr__pfet_01v8 ad=0p pd=0u as=0p ps=0u w=5e+06u l=150000u
X10 a_6260_5590.t0 VCT.t3 VP.t3 VP.t2 sky130_fd_pr__pfet_01v8 ad=0p pd=0u as=0p ps=0u w=5e+06u l=150000u
X11 a_3230_5590.t0 a_4490_3828.t3 a_4518_1814.t2 VP.t2 sky130_fd_pr__pfet_01v8 ad=0p pd=0u as=0p ps=0u w=5e+06u l=150000u
X12 a_274_5606.t1 VCT.t4 VP.t14 VP.t2 sky130_fd_pr__pfet_01v8 ad=0p pd=0u as=0p ps=0u w=5e+06u l=150000u
X13 a_1562_1830.t1 a_1534_3844.t4 a_274_5606.t2 VP.t17 sky130_fd_pr__pfet_01v8 ad=0p pd=0u as=0p ps=0u w=5e+06u l=150000u
X14 a_9312_250.t2 a_1976_242.t2 VN.t17 VN.t1 sky130_fd_pr__nfet_01v8 ad=0p pd=0u as=0p ps=0u w=5e+06u l=150000u
X15 a_12504_5562.t0 a_n1606_2236.t5 VP.t8 VP.t7 sky130_fd_pr__pfet_01v8 ad=0p pd=0u as=0p ps=0u w=5e+06u l=150000u
X16 a_1562_1830.t0 OUT.t3 a_238_268.t0 VN.t0 sky130_fd_pr__nfet_01v8 ad=0p pd=0u as=0p ps=0u w=5e+06u l=150000u
X17 a_12468_224.t1 a_1976_242.t3 VN.t19 VN.t1 sky130_fd_pr__nfet_01v8 ad=0p pd=0u as=0p ps=0u w=5e+06u l=150000u
X18 a_9348_5588.t0 a_n1606_2236.t6 VP.t6 VP.t2 sky130_fd_pr__pfet_01v8 ad=0p pd=0u as=0p ps=0u w=5e+06u l=150000u
X19 a_1534_3844.t1 OUT.t4 a_6260_5590.t1 VP.t2 sky130_fd_pr__pfet_01v8 ad=0p pd=0u as=0p ps=0u w=5e+06u l=150000u
X20 VN.t5 a_n1698_2236.t3 a_6224_252.t1 VN.t4 sky130_fd_pr__nfet_01v8 ad=0p pd=0u as=0p ps=0u w=5e+06u l=150000u
X21 a_n1698_2236.t2 VB.t0 a_n1606_2236.t2 VN.t0 sky130_fd_pr__nfet_01v8 ad=0p pd=0u as=0p ps=0u w=5e+06u l=150000u
X22 a_1534_3844.t2 a_4518_1814.t4 a_6224_252.t2 VN.t1 sky130_fd_pr__nfet_01v8 ad=0p pd=0u as=0p ps=0u w=5e+06u l=150000u
X23 a_6224_252.t0 a_1976_242.t4 VN.t18 VN.t1 sky130_fd_pr__nfet_01v8 ad=0p pd=0u as=0p ps=0u w=5e+06u l=150000u
X24 a_3230_5590.t1 a_n1606_2236.t7 VP.t5 VP.t2 sky130_fd_pr__pfet_01v8 ad=0p pd=0u as=0p ps=0u w=5e+06u l=150000u
X25 a_3194_252.t2 a_1976_242.t5 VN.t21 VN.t20 sky130_fd_pr__nfet_01v8 ad=0p pd=0u as=0p ps=0u w=5e+06u l=150000u
X26 OUT.t0 a_4490_3828.t4 a_12468_224.t0 VN.t1 sky130_fd_pr__nfet_01v8 ad=0p pd=0u as=0p ps=0u w=5e+06u l=150000u
X27 a_9312_250.t0 a_n1698_2236.t4 VN.t6 VN.t1 sky130_fd_pr__nfet_01v8 ad=0p pd=0u as=0p ps=0u w=5e+06u l=150000u
X28 a_9348_5588.t2 a_1562_1830.t4 a_4490_3828.t0 VP.t18 sky130_fd_pr__pfet_01v8 ad=0p pd=0u as=0p ps=0u w=5e+06u l=150000u
X29 VN.t7 a_n1698_2236.t5 a_12468_224.t2 VN.t1 sky130_fd_pr__nfet_01v8 ad=0p pd=0u as=0p ps=0u w=5e+06u l=150000u
X30 a_1534_3844.t0 OUT.t5 VN.t10 VN.t1 sky130_fd_pr__nfet_01v8 ad=0p pd=0u as=0p ps=0u w=1e+06u l=500000u
X31 VN.t22 a_1976_242.t6 a_238_268.t1 VN.t0 sky130_fd_pr__nfet_01v8 ad=0p pd=0u as=0p ps=0u w=5e+06u l=150000u
X32 VN.t12 a_n1698_2236.t6 a_3194_252.t1 VN.t0 sky130_fd_pr__nfet_01v8 ad=0p pd=0u as=0p ps=0u w=5e+06u l=150000u
X33 OUT.t1 a_4518_1814.t5 VN.t15 VN.t1 sky130_fd_pr__nfet_01v8 ad=0p pd=0u as=0p ps=0u w=1e+06u l=500000u
X34 a_4518_1814.t0 a_4490_3828.t5 VN.t3 VN.t2 sky130_fd_pr__nfet_01v8 ad=0p pd=0u as=0p ps=0u w=1e+06u l=500000u
X35 a_238_268.t2 a_n1698_2236.t7 VN.t13 VN.t0 sky130_fd_pr__nfet_01v8 ad=0p pd=0u as=0p ps=0u w=5e+06u l=150000u
X36 VP.t16 VN.t23 a_1976_242.t1 VP.t15 sky130_fd_pr__pfet_01v8 ad=0p pd=0u as=0p ps=0u w=1e+07u l=150000u
X37 a_1976_242.t0 VCT.t5 VN.t14 VN.t1 sky130_fd_pr__nfet_01v8 ad=0p pd=0u as=0p ps=0u w=6e+06u l=150000u
X38 a_4490_3828.t1 a_1562_1830.t5 VN.t8 VN.t1 sky130_fd_pr__nfet_01v8 ad=0p pd=0u as=0p ps=0u w=1e+06u l=500000u
X39 a_1562_1830.t2 a_1534_3844.t5 VN.t16 VN.t0 sky130_fd_pr__nfet_01v8 ad=0p pd=0u as=0p ps=0u w=1e+06u l=500000u
R0 a_n1606_2236.n50 a_n1606_2236.n49 1018.63
R1 a_n1606_2236.n72 a_n1606_2236.n71 1018.63
R2 a_n1606_2236.n94 a_n1606_2236.n93 1018.63
R3 a_n1606_2236.n116 a_n1606_2236.n115 1018.63
R4 a_n1606_2236.n138 a_n1606_2236.n137 1018.63
R5 a_n1606_2236.n61 a_n1606_2236.n60 926.657
R6 a_n1606_2236.n83 a_n1606_2236.n82 926.657
R7 a_n1606_2236.n105 a_n1606_2236.n104 926.657
R8 a_n1606_2236.n127 a_n1606_2236.n126 926.657
R9 a_n1606_2236.n149 a_n1606_2236.n148 926.657
R10 a_n1606_2236.n58 a_n1606_2236.t4 864.386
R11 a_n1606_2236.n57 a_n1606_2236.n41 864.386
R12 a_n1606_2236.n56 a_n1606_2236.n42 864.386
R13 a_n1606_2236.n55 a_n1606_2236.n43 864.386
R14 a_n1606_2236.n54 a_n1606_2236.n44 864.386
R15 a_n1606_2236.n53 a_n1606_2236.n45 864.386
R16 a_n1606_2236.n52 a_n1606_2236.n46 864.386
R17 a_n1606_2236.n51 a_n1606_2236.n47 864.386
R18 a_n1606_2236.n50 a_n1606_2236.n48 864.386
R19 a_n1606_2236.n59 a_n1606_2236.n40 864.386
R20 a_n1606_2236.n80 a_n1606_2236.n63 864.386
R21 a_n1606_2236.n79 a_n1606_2236.n64 864.386
R22 a_n1606_2236.n78 a_n1606_2236.n65 864.386
R23 a_n1606_2236.n77 a_n1606_2236.n66 864.386
R24 a_n1606_2236.n76 a_n1606_2236.n67 864.386
R25 a_n1606_2236.n75 a_n1606_2236.n68 864.386
R26 a_n1606_2236.n74 a_n1606_2236.n69 864.386
R27 a_n1606_2236.n73 a_n1606_2236.n70 864.386
R28 a_n1606_2236.n72 a_n1606_2236.t7 864.386
R29 a_n1606_2236.n81 a_n1606_2236.n62 864.386
R30 a_n1606_2236.n102 a_n1606_2236.n85 864.386
R31 a_n1606_2236.n101 a_n1606_2236.n86 864.386
R32 a_n1606_2236.n100 a_n1606_2236.n87 864.386
R33 a_n1606_2236.n99 a_n1606_2236.n88 864.386
R34 a_n1606_2236.n98 a_n1606_2236.n89 864.386
R35 a_n1606_2236.n97 a_n1606_2236.n90 864.386
R36 a_n1606_2236.n96 a_n1606_2236.n91 864.386
R37 a_n1606_2236.n95 a_n1606_2236.n92 864.386
R38 a_n1606_2236.n94 a_n1606_2236.t3 864.386
R39 a_n1606_2236.n103 a_n1606_2236.n84 864.386
R40 a_n1606_2236.n124 a_n1606_2236.n107 864.386
R41 a_n1606_2236.n123 a_n1606_2236.n108 864.386
R42 a_n1606_2236.n122 a_n1606_2236.n109 864.386
R43 a_n1606_2236.n121 a_n1606_2236.n110 864.386
R44 a_n1606_2236.n120 a_n1606_2236.t6 864.386
R45 a_n1606_2236.n119 a_n1606_2236.n111 864.386
R46 a_n1606_2236.n118 a_n1606_2236.n112 864.386
R47 a_n1606_2236.n117 a_n1606_2236.n113 864.386
R48 a_n1606_2236.n116 a_n1606_2236.n114 864.386
R49 a_n1606_2236.n125 a_n1606_2236.n106 864.386
R50 a_n1606_2236.n146 a_n1606_2236.t5 864.386
R51 a_n1606_2236.n145 a_n1606_2236.n129 864.386
R52 a_n1606_2236.n144 a_n1606_2236.n130 864.386
R53 a_n1606_2236.n143 a_n1606_2236.n131 864.386
R54 a_n1606_2236.n142 a_n1606_2236.n132 864.386
R55 a_n1606_2236.n141 a_n1606_2236.n133 864.386
R56 a_n1606_2236.n140 a_n1606_2236.n134 864.386
R57 a_n1606_2236.n139 a_n1606_2236.n135 864.386
R58 a_n1606_2236.n138 a_n1606_2236.n136 864.386
R59 a_n1606_2236.n147 a_n1606_2236.n128 864.386
R60 a_n1606_2236.n166 a_n1606_2236.n165 783.313
R61 a_n1606_2236.n157 a_n1606_2236.n155 783.313
R62 a_n1606_2236.n166 a_n1606_2236.t0 709.745
R63 a_n1606_2236.n157 a_n1606_2236.n156 709.745
R64 a_n1606_2236.n160 a_n1606_2236.n159 709.745
R65 a_n1606_2236.n162 a_n1606_2236.n161 709.745
R66 a_n1606_2236.n164 a_n1606_2236.n163 709.745
R67 a_n1606_2236.n158 a_n1606_2236.n154 684.44
R68 a_n1606_2236.n193 a_n1606_2236.n183 281.697
R69 a_n1606_2236.n150 a_n1606_2236.n149 204.487
R70 a_n1606_2236.n150 a_n1606_2236.n127 202.574
R71 a_n1606_2236.n152 a_n1606_2236.n83 202.57
R72 a_n1606_2236.n151 a_n1606_2236.n105 202.57
R73 a_n1606_2236.n153 a_n1606_2236.n61 202.538
R74 a_n1606_2236.n51 a_n1606_2236.n50 154.24
R75 a_n1606_2236.n52 a_n1606_2236.n51 154.24
R76 a_n1606_2236.n53 a_n1606_2236.n52 154.24
R77 a_n1606_2236.n54 a_n1606_2236.n53 154.24
R78 a_n1606_2236.n55 a_n1606_2236.n54 154.24
R79 a_n1606_2236.n56 a_n1606_2236.n55 154.24
R80 a_n1606_2236.n57 a_n1606_2236.n56 154.24
R81 a_n1606_2236.n58 a_n1606_2236.n57 154.24
R82 a_n1606_2236.n73 a_n1606_2236.n72 154.24
R83 a_n1606_2236.n74 a_n1606_2236.n73 154.24
R84 a_n1606_2236.n75 a_n1606_2236.n74 154.24
R85 a_n1606_2236.n76 a_n1606_2236.n75 154.24
R86 a_n1606_2236.n77 a_n1606_2236.n76 154.24
R87 a_n1606_2236.n78 a_n1606_2236.n77 154.24
R88 a_n1606_2236.n79 a_n1606_2236.n78 154.24
R89 a_n1606_2236.n80 a_n1606_2236.n79 154.24
R90 a_n1606_2236.n95 a_n1606_2236.n94 154.24
R91 a_n1606_2236.n96 a_n1606_2236.n95 154.24
R92 a_n1606_2236.n97 a_n1606_2236.n96 154.24
R93 a_n1606_2236.n98 a_n1606_2236.n97 154.24
R94 a_n1606_2236.n99 a_n1606_2236.n98 154.24
R95 a_n1606_2236.n100 a_n1606_2236.n99 154.24
R96 a_n1606_2236.n101 a_n1606_2236.n100 154.24
R97 a_n1606_2236.n102 a_n1606_2236.n101 154.24
R98 a_n1606_2236.n117 a_n1606_2236.n116 154.24
R99 a_n1606_2236.n118 a_n1606_2236.n117 154.24
R100 a_n1606_2236.n119 a_n1606_2236.n118 154.24
R101 a_n1606_2236.n120 a_n1606_2236.n119 154.24
R102 a_n1606_2236.n121 a_n1606_2236.n120 154.24
R103 a_n1606_2236.n122 a_n1606_2236.n121 154.24
R104 a_n1606_2236.n123 a_n1606_2236.n122 154.24
R105 a_n1606_2236.n124 a_n1606_2236.n123 154.24
R106 a_n1606_2236.n139 a_n1606_2236.n138 154.24
R107 a_n1606_2236.n140 a_n1606_2236.n139 154.24
R108 a_n1606_2236.n141 a_n1606_2236.n140 154.24
R109 a_n1606_2236.n142 a_n1606_2236.n141 154.24
R110 a_n1606_2236.n143 a_n1606_2236.n142 154.24
R111 a_n1606_2236.n144 a_n1606_2236.n143 154.24
R112 a_n1606_2236.n145 a_n1606_2236.n144 154.24
R113 a_n1606_2236.n146 a_n1606_2236.n145 154.24
R114 a_n1606_2236.n59 a_n1606_2236.n58 142.605
R115 a_n1606_2236.n81 a_n1606_2236.n80 142.605
R116 a_n1606_2236.n103 a_n1606_2236.n102 142.605
R117 a_n1606_2236.n125 a_n1606_2236.n124 142.605
R118 a_n1606_2236.n147 a_n1606_2236.n146 142.605
R119 a_n1606_2236.n179 a_n1606_2236.n178 115.46
R120 a_n1606_2236.n181 a_n1606_2236.n169 113.686
R121 a_n1606_2236.n182 a_n1606_2236.n167 112.463
R122 a_n1606_2236.n160 a_n1606_2236.n158 97.668
R123 a_n1606_2236.n158 a_n1606_2236.n157 97.541
R124 a_n1606_2236.n183 a_n1606_2236.n182 76
R125 a_n1606_2236.n162 a_n1606_2236.n160 73.568
R126 a_n1606_2236.n164 a_n1606_2236.n162 73.568
R127 a_n1606_2236.n180 a_n1606_2236.n179 69.99
R128 a_n1606_2236.n182 a_n1606_2236.n181 58.332
R129 a_n1606_2236.t2 a_n1606_2236.n193 122.225
R130 a_n1606_2236.n179 a_n1606_2236.n175 45.131
R131 a_n1606_2236.n180 a_n1606_2236.n172 45.131
R132 a_n1606_2236.n61 a_n1606_2236.n59 41.551
R133 a_n1606_2236.n83 a_n1606_2236.n81 41.551
R134 a_n1606_2236.n105 a_n1606_2236.n103 41.551
R135 a_n1606_2236.n127 a_n1606_2236.n125 41.551
R136 a_n1606_2236.n149 a_n1606_2236.n147 41.551
R137 a_n1606_2236.t2 a_n1606_2236.n39 32.727
R138 a_n1606_2236.n39 a_n1606_2236.n1 29.09
R139 a_n1606_2236.n187 a_n1606_2236.n186 20
R140 a_n1606_2236.n6 a_n1606_2236.n5 16.363
R141 a_n1606_2236.n167 a_n1606_2236.n166 15.221
R142 a_n1606_2236.n31 a_n1606_2236.n30 15
R143 a_n1606_2236.n23 a_n1606_2236.n22 15
R144 a_n1606_2236.n15 a_n1606_2236.n14 15
R145 a_n1606_2236.n7 a_n1606_2236.n6 15
R146 a_n1606_2236.n188 a_n1606_2236.n187 15
R147 a_n1606_2236.n39 a_n1606_2236.n38 15
R148 a_n1606_2236.n33 a_n1606_2236.n32 15
R149 a_n1606_2236.n25 a_n1606_2236.n24 15
R150 a_n1606_2236.n17 a_n1606_2236.n16 15
R151 a_n1606_2236.n9 a_n1606_2236.n8 15
R152 a_n1606_2236.n185 a_n1606_2236.n184 15
R153 a_n1606_2236.n192 a_n1606_2236.n191 13.634
R154 a_n1606_2236.n10 a_n1606_2236.n9 12.917
R155 a_n1606_2236.n18 a_n1606_2236.n17 12.917
R156 a_n1606_2236.n26 a_n1606_2236.n25 12.917
R157 a_n1606_2236.n34 a_n1606_2236.n33 12.917
R158 a_n1606_2236.n14 a_n1606_2236.n13 12.727
R159 a_n1606_2236.n22 a_n1606_2236.n21 9.09
R160 a_n1606_2236.n193 a_n1606_2236.n192 8.695
R161 a_n1606_2236.n167 a_n1606_2236.n164 7.61
R162 a_n1606_2236.n35 a_n1606_2236.n34 5.741
R163 a_n1606_2236.n38 a_n1606_2236.n37 5.741
R164 a_n1606_2236.n175 a_n1606_2236.n173 5.713
R165 a_n1606_2236.n175 a_n1606_2236.n174 5.713
R166 a_n1606_2236.n178 a_n1606_2236.n176 5.713
R167 a_n1606_2236.n178 a_n1606_2236.n177 5.713
R168 a_n1606_2236.n169 a_n1606_2236.n168 5.713
R169 a_n1606_2236.n169 a_n1606_2236.t1 5.713
R170 a_n1606_2236.n172 a_n1606_2236.n170 5.713
R171 a_n1606_2236.n172 a_n1606_2236.n171 5.713
R172 a_n1606_2236.n30 a_n1606_2236.n29 5.454
R173 a_n1606_2236.n27 a_n1606_2236.n26 5.023
R174 a_n1606_2236.n33 a_n1606_2236.n31 5.023
R175 a_n1606_2236.n19 a_n1606_2236.n18 4.305
R176 a_n1606_2236.n25 a_n1606_2236.n23 4.305
R177 a_n1606_2236.n190 a_n1606_2236.n189 3.947
R178 a_n1606_2236.n189 a_n1606_2236.n188 3.947
R179 a_n1606_2236.n11 a_n1606_2236.n10 3.588
R180 a_n1606_2236.n17 a_n1606_2236.n15 3.588
R181 a_n1606_2236.n4 a_n1606_2236.n3 3.229
R182 a_n1606_2236.n7 a_n1606_2236.n4 3.229
R183 a_n1606_2236.n3 a_n1606_2236.n2 2.87
R184 a_n1606_2236.n9 a_n1606_2236.n7 2.87
R185 a_n1606_2236.n183 a_n1606_2236.n153 2.668
R186 a_n1606_2236.n12 a_n1606_2236.n11 2.511
R187 a_n1606_2236.n15 a_n1606_2236.n12 2.511
R188 a_n1606_2236.n191 a_n1606_2236.n190 2.152
R189 a_n1606_2236.n188 a_n1606_2236.n185 2.152
R190 a_n1606_2236.n151 a_n1606_2236.n150 1.82
R191 a_n1606_2236.n1 a_n1606_2236.n0 1.818
R192 a_n1606_2236.n20 a_n1606_2236.n19 1.794
R193 a_n1606_2236.n23 a_n1606_2236.n20 1.794
R194 a_n1606_2236.n152 a_n1606_2236.n151 1.786
R195 a_n1606_2236.n153 a_n1606_2236.n152 1.742
R196 a_n1606_2236.n181 a_n1606_2236.n180 1.355
R197 a_n1606_2236.n28 a_n1606_2236.n27 1.076
R198 a_n1606_2236.n31 a_n1606_2236.n28 1.076
R199 a_n1606_2236.n36 a_n1606_2236.n35 0.358
R200 a_n1606_2236.n37 a_n1606_2236.n36 0.358
R201 VP.n766 VP.t9 530.876
R202 VP.t7 VP.t13 442.607
R203 VP.t0 VP.t7 408.504
R204 VP.t13 VP.t19 389.969
R205 VP.t2 VP.t18 371.434
R206 VP.n558 VP.n557 314.834
R207 VP.n138 VP.n137 314.754
R208 VP.n558 VP.n488 310.804
R209 VP.n416 VP.n415 310.491
R210 VP.t17 VP.t2 289.379
R211 VP.t19 VP.t15 278.761
R212 VP.t18 VP.t0 247.623
R213 VP.n416 VP.n346 241.911
R214 VP.n767 VP.n766 218.582
R215 VP.n417 VP.t16 212.355
R216 VP.n768 VP.n767 185.797
R217 VP.n277 VP.n276 176.93
R218 VP.n277 VP.n207 173.108
R219 VP.n138 VP.n68 173.066
R220 VP.n768 VP.n627 172.942
R221 VP.n766 VP.n765 150.175
R222 VP.n712 VP.t10 72.48
R223 VP.n435 VP.t4 68.375
R224 VP.n293 VP.t20 68.375
R225 VP.n643 VP.t11 64.755
R226 VP.n574 VP.t14 64.755
R227 VP.n504 VP.t5 64.755
R228 VP.n84 VP.t12 64.755
R229 VP.n15 VP.t3 64.755
R230 VP.n223 VP.t6 64.755
R231 VP.n154 VP.t1 64.755
R232 VP.n362 VP.t8 64.755
R233 VP.n765 VP.n730 49.503
R234 VP.n696 VP.n661 49.503
R235 VP.n627 VP.n592 49.503
R236 VP.n557 VP.n522 49.503
R237 VP.n488 VP.n453 49.503
R238 VP.n137 VP.n102 49.503
R239 VP.n68 VP.n33 49.503
R240 VP.n276 VP.n241 49.503
R241 VP.n207 VP.n172 49.503
R242 VP.n415 VP.n380 49.503
R243 VP.n346 VP.n311 49.503
R244 VP.n759 VP.n758 37.362
R245 VP.n482 VP.n481 34.951
R246 VP.n340 VP.n339 34.951
R247 VP.n690 VP.n689 32.833
R248 VP.n621 VP.n620 32.833
R249 VP.n551 VP.n550 32.833
R250 VP.n131 VP.n130 32.833
R251 VP.n62 VP.n61 32.833
R252 VP.n270 VP.n269 32.833
R253 VP.n201 VP.n200 32.833
R254 VP.n409 VP.n408 32.833
R255 VP.n713 VP.n712 30.824
R256 VP.n436 VP.n435 30.687
R257 VP.n294 VP.n293 30.687
R258 VP.n751 VP.n750 30.568
R259 VP.n644 VP.n643 30.553
R260 VP.n575 VP.n574 30.553
R261 VP.n505 VP.n504 30.553
R262 VP.n85 VP.n84 30.553
R263 VP.n16 VP.n15 30.553
R264 VP.n224 VP.n223 30.553
R265 VP.n155 VP.n154 30.553
R266 VP.n363 VP.n362 30.553
R267 VP.n474 VP.n473 28.596
R268 VP.n332 VP.n331 28.596
R269 VP.n682 VP.n681 26.863
R270 VP.n613 VP.n612 26.863
R271 VP.n543 VP.n542 26.863
R272 VP.n123 VP.n122 26.863
R273 VP.n54 VP.n53 26.863
R274 VP.n262 VP.n261 26.863
R275 VP.n193 VP.n192 26.863
R276 VP.n401 VP.n400 26.863
R277 VP.n767 VP.n696 26.144
R278 VP.n743 VP.n742 23.775
R279 VP.n466 VP.n465 22.241
R280 VP.n324 VP.n323 22.241
R281 VP.n674 VP.n673 20.893
R282 VP.n605 VP.n604 20.893
R283 VP.n535 VP.n534 20.893
R284 VP.n115 VP.n114 20.893
R285 VP.n46 VP.n45 20.893
R286 VP.n254 VP.n253 20.893
R287 VP.n185 VP.n184 20.893
R288 VP.n393 VP.n392 20.893
R289 VP.n735 VP.n734 16.982
R290 VP.n458 VP.n457 15.887
R291 VP.n316 VP.n315 15.887
R292 VP.n709 VP.n708 15
R293 VP.n701 VP.n700 15
R294 VP.n736 VP.n735 15
R295 VP.n744 VP.n743 15
R296 VP.n752 VP.n751 15
R297 VP.n760 VP.n759 15
R298 VP.n711 VP.n710 15
R299 VP.n703 VP.n702 15
R300 VP.n733 VP.n732 15
R301 VP.n741 VP.n740 15
R302 VP.n749 VP.n748 15
R303 VP.n757 VP.n756 15
R304 VP.n640 VP.n639 15
R305 VP.n632 VP.n631 15
R306 VP.n667 VP.n666 15
R307 VP.n675 VP.n674 15
R308 VP.n683 VP.n682 15
R309 VP.n691 VP.n690 15
R310 VP.n642 VP.n641 15
R311 VP.n634 VP.n633 15
R312 VP.n664 VP.n663 15
R313 VP.n672 VP.n671 15
R314 VP.n680 VP.n679 15
R315 VP.n688 VP.n687 15
R316 VP.n571 VP.n570 15
R317 VP.n563 VP.n562 15
R318 VP.n598 VP.n597 15
R319 VP.n606 VP.n605 15
R320 VP.n614 VP.n613 15
R321 VP.n622 VP.n621 15
R322 VP.n573 VP.n572 15
R323 VP.n565 VP.n564 15
R324 VP.n595 VP.n594 15
R325 VP.n603 VP.n602 15
R326 VP.n611 VP.n610 15
R327 VP.n619 VP.n618 15
R328 VP.n501 VP.n500 15
R329 VP.n493 VP.n492 15
R330 VP.n528 VP.n527 15
R331 VP.n536 VP.n535 15
R332 VP.n544 VP.n543 15
R333 VP.n552 VP.n551 15
R334 VP.n503 VP.n502 15
R335 VP.n495 VP.n494 15
R336 VP.n525 VP.n524 15
R337 VP.n533 VP.n532 15
R338 VP.n541 VP.n540 15
R339 VP.n549 VP.n548 15
R340 VP.n432 VP.n431 15
R341 VP.n424 VP.n423 15
R342 VP.n459 VP.n458 15
R343 VP.n467 VP.n466 15
R344 VP.n475 VP.n474 15
R345 VP.n483 VP.n482 15
R346 VP.n434 VP.n433 15
R347 VP.n426 VP.n425 15
R348 VP.n456 VP.n455 15
R349 VP.n464 VP.n463 15
R350 VP.n472 VP.n471 15
R351 VP.n480 VP.n479 15
R352 VP.n81 VP.n80 15
R353 VP.n73 VP.n72 15
R354 VP.n108 VP.n107 15
R355 VP.n116 VP.n115 15
R356 VP.n124 VP.n123 15
R357 VP.n132 VP.n131 15
R358 VP.n83 VP.n82 15
R359 VP.n75 VP.n74 15
R360 VP.n105 VP.n104 15
R361 VP.n113 VP.n112 15
R362 VP.n121 VP.n120 15
R363 VP.n129 VP.n128 15
R364 VP.n12 VP.n11 15
R365 VP.n4 VP.n3 15
R366 VP.n39 VP.n38 15
R367 VP.n47 VP.n46 15
R368 VP.n55 VP.n54 15
R369 VP.n63 VP.n62 15
R370 VP.n14 VP.n13 15
R371 VP.n6 VP.n5 15
R372 VP.n36 VP.n35 15
R373 VP.n44 VP.n43 15
R374 VP.n52 VP.n51 15
R375 VP.n60 VP.n59 15
R376 VP.n220 VP.n219 15
R377 VP.n212 VP.n211 15
R378 VP.n247 VP.n246 15
R379 VP.n255 VP.n254 15
R380 VP.n263 VP.n262 15
R381 VP.n271 VP.n270 15
R382 VP.n222 VP.n221 15
R383 VP.n214 VP.n213 15
R384 VP.n244 VP.n243 15
R385 VP.n252 VP.n251 15
R386 VP.n260 VP.n259 15
R387 VP.n268 VP.n267 15
R388 VP.n151 VP.n150 15
R389 VP.n143 VP.n142 15
R390 VP.n178 VP.n177 15
R391 VP.n186 VP.n185 15
R392 VP.n194 VP.n193 15
R393 VP.n202 VP.n201 15
R394 VP.n153 VP.n152 15
R395 VP.n145 VP.n144 15
R396 VP.n175 VP.n174 15
R397 VP.n183 VP.n182 15
R398 VP.n191 VP.n190 15
R399 VP.n199 VP.n198 15
R400 VP.n359 VP.n358 15
R401 VP.n351 VP.n350 15
R402 VP.n386 VP.n385 15
R403 VP.n394 VP.n393 15
R404 VP.n402 VP.n401 15
R405 VP.n410 VP.n409 15
R406 VP.n361 VP.n360 15
R407 VP.n353 VP.n352 15
R408 VP.n383 VP.n382 15
R409 VP.n391 VP.n390 15
R410 VP.n399 VP.n398 15
R411 VP.n407 VP.n406 15
R412 VP.n290 VP.n289 15
R413 VP.n282 VP.n281 15
R414 VP.n317 VP.n316 15
R415 VP.n325 VP.n324 15
R416 VP.n333 VP.n332 15
R417 VP.n341 VP.n340 15
R418 VP.n292 VP.n291 15
R419 VP.n284 VP.n283 15
R420 VP.n314 VP.n313 15
R421 VP.n322 VP.n321 15
R422 VP.n330 VP.n329 15
R423 VP.n338 VP.n337 15
R424 VP.n666 VP.n665 14.924
R425 VP.n597 VP.n596 14.924
R426 VP.n527 VP.n526 14.924
R427 VP.n107 VP.n106 14.924
R428 VP.n38 VP.n37 14.924
R429 VP.n246 VP.n245 14.924
R430 VP.n177 VP.n176 14.924
R431 VP.n385 VP.n384 14.924
R432 VP.n643 VP.n642 14.123
R433 VP.n574 VP.n573 14.123
R434 VP.n504 VP.n503 14.123
R435 VP.n84 VP.n83 14.123
R436 VP.n15 VP.n14 14.123
R437 VP.n223 VP.n222 14.123
R438 VP.n154 VP.n153 14.123
R439 VP.n362 VP.n361 14.123
R440 VP.n435 VP.n434 14.071
R441 VP.n293 VP.n292 14.071
R442 VP.n712 VP.n711 14.017
R443 VP.n695 VP.n694 13.544
R444 VP.n626 VP.n625 13.544
R445 VP.n556 VP.n555 13.544
R446 VP.n136 VP.n135 13.544
R447 VP.n67 VP.n66 13.544
R448 VP.n275 VP.n274 13.544
R449 VP.n206 VP.n205 13.544
R450 VP.n414 VP.n413 13.544
R451 VP.n487 VP.n486 13.532
R452 VP.n345 VP.n344 13.532
R453 VP.n764 VP.n763 13.518
R454 VP.n757 VP.n755 12.917
R455 VP.n749 VP.n747 12.917
R456 VP.n741 VP.n739 12.917
R457 VP.n733 VP.n731 12.917
R458 VP.n704 VP.n703 12.917
R459 VP.n688 VP.n686 12.917
R460 VP.n680 VP.n678 12.917
R461 VP.n672 VP.n670 12.917
R462 VP.n664 VP.n662 12.917
R463 VP.n635 VP.n634 12.917
R464 VP.n619 VP.n617 12.917
R465 VP.n611 VP.n609 12.917
R466 VP.n603 VP.n601 12.917
R467 VP.n595 VP.n593 12.917
R468 VP.n566 VP.n565 12.917
R469 VP.n549 VP.n547 12.917
R470 VP.n541 VP.n539 12.917
R471 VP.n533 VP.n531 12.917
R472 VP.n525 VP.n523 12.917
R473 VP.n496 VP.n495 12.917
R474 VP.n480 VP.n478 12.917
R475 VP.n472 VP.n470 12.917
R476 VP.n464 VP.n462 12.917
R477 VP.n456 VP.n454 12.917
R478 VP.n427 VP.n426 12.917
R479 VP.n129 VP.n127 12.917
R480 VP.n121 VP.n119 12.917
R481 VP.n113 VP.n111 12.917
R482 VP.n105 VP.n103 12.917
R483 VP.n76 VP.n75 12.917
R484 VP.n60 VP.n58 12.917
R485 VP.n52 VP.n50 12.917
R486 VP.n44 VP.n42 12.917
R487 VP.n36 VP.n34 12.917
R488 VP.n7 VP.n6 12.917
R489 VP.n268 VP.n266 12.917
R490 VP.n260 VP.n258 12.917
R491 VP.n252 VP.n250 12.917
R492 VP.n244 VP.n242 12.917
R493 VP.n215 VP.n214 12.917
R494 VP.n199 VP.n197 12.917
R495 VP.n191 VP.n189 12.917
R496 VP.n183 VP.n181 12.917
R497 VP.n175 VP.n173 12.917
R498 VP.n146 VP.n145 12.917
R499 VP.n407 VP.n405 12.917
R500 VP.n399 VP.n397 12.917
R501 VP.n391 VP.n389 12.917
R502 VP.n383 VP.n381 12.917
R503 VP.n354 VP.n353 12.917
R504 VP.n338 VP.n336 12.917
R505 VP.n330 VP.n328 12.917
R506 VP.n322 VP.n320 12.917
R507 VP.n314 VP.n312 12.917
R508 VP.n285 VP.n284 12.917
R509 VP.n700 VP.n699 10.189
R510 VP.n423 VP.n422 9.532
R511 VP.n281 VP.n280 9.532
R512 VP.n631 VP.n630 8.954
R513 VP.n562 VP.n561 8.954
R514 VP.n492 VP.n491 8.954
R515 VP.n72 VP.n71 8.954
R516 VP.n3 VP.n2 8.954
R517 VP.n211 VP.n210 8.954
R518 VP.n142 VP.n141 8.954
R519 VP.n350 VP.n349 8.954
R520 VP.n765 VP.n764 8.838
R521 VP.n488 VP.n487 8.82
R522 VP.n346 VP.n345 8.82
R523 VP.n696 VP.n695 8.805
R524 VP.n627 VP.n626 8.805
R525 VP.n557 VP.n556 8.805
R526 VP.n137 VP.n136 8.805
R527 VP.n68 VP.n67 8.805
R528 VP.n276 VP.n275 8.805
R529 VP.n207 VP.n206 8.805
R530 VP.n415 VP.n414 8.805
R531 VP.t9 VP.t17 7.617
R532 VP.n769 VP.n558 6.506
R533 VP.n418 VP.n277 6.475
R534 VP.n419 VP.n138 6.473
R535 VP.n417 VP.n416 6.417
R536 VP.n705 VP.n704 5.741
R537 VP.n711 VP.n709 5.741
R538 VP.n636 VP.n635 5.741
R539 VP.n642 VP.n640 5.741
R540 VP.n567 VP.n566 5.741
R541 VP.n573 VP.n571 5.741
R542 VP.n497 VP.n496 5.741
R543 VP.n503 VP.n501 5.741
R544 VP.n428 VP.n427 5.741
R545 VP.n434 VP.n432 5.741
R546 VP.n77 VP.n76 5.741
R547 VP.n83 VP.n81 5.741
R548 VP.n8 VP.n7 5.741
R549 VP.n14 VP.n12 5.741
R550 VP.n216 VP.n215 5.741
R551 VP.n222 VP.n220 5.741
R552 VP.n147 VP.n146 5.741
R553 VP.n153 VP.n151 5.741
R554 VP.n355 VP.n354 5.741
R555 VP.n361 VP.n359 5.741
R556 VP.n286 VP.n285 5.741
R557 VP.n292 VP.n290 5.741
R558 VP.n703 VP.n701 5.023
R559 VP.n634 VP.n632 5.023
R560 VP.n565 VP.n563 5.023
R561 VP.n495 VP.n493 5.023
R562 VP.n426 VP.n424 5.023
R563 VP.n75 VP.n73 5.023
R564 VP.n6 VP.n4 5.023
R565 VP.n214 VP.n212 5.023
R566 VP.n145 VP.n143 5.023
R567 VP.n353 VP.n351 5.023
R568 VP.n284 VP.n282 5.023
R569 VP.n769 VP.n768 4.734
R570 VP.n739 VP.n738 4.305
R571 VP.n736 VP.n733 4.305
R572 VP.n670 VP.n669 4.305
R573 VP.n667 VP.n664 4.305
R574 VP.n601 VP.n600 4.305
R575 VP.n598 VP.n595 4.305
R576 VP.n531 VP.n530 4.305
R577 VP.n528 VP.n525 4.305
R578 VP.n462 VP.n461 4.305
R579 VP.n459 VP.n456 4.305
R580 VP.n111 VP.n110 4.305
R581 VP.n108 VP.n105 4.305
R582 VP.n42 VP.n41 4.305
R583 VP.n39 VP.n36 4.305
R584 VP.n250 VP.n249 4.305
R585 VP.n247 VP.n244 4.305
R586 VP.n181 VP.n180 4.305
R587 VP.n178 VP.n175 4.305
R588 VP.n389 VP.n388 4.305
R589 VP.n386 VP.n383 4.305
R590 VP.n320 VP.n319 4.305
R591 VP.n317 VP.n314 4.305
R592 VP.n762 VP.n761 3.947
R593 VP.n761 VP.n760 3.947
R594 VP.n693 VP.n692 3.947
R595 VP.n692 VP.n691 3.947
R596 VP.n624 VP.n623 3.947
R597 VP.n623 VP.n622 3.947
R598 VP.n554 VP.n553 3.947
R599 VP.n553 VP.n552 3.947
R600 VP.n485 VP.n484 3.947
R601 VP.n484 VP.n483 3.947
R602 VP.n134 VP.n133 3.947
R603 VP.n133 VP.n132 3.947
R604 VP.n65 VP.n64 3.947
R605 VP.n64 VP.n63 3.947
R606 VP.n273 VP.n272 3.947
R607 VP.n272 VP.n271 3.947
R608 VP.n204 VP.n203 3.947
R609 VP.n203 VP.n202 3.947
R610 VP.n412 VP.n411 3.947
R611 VP.n411 VP.n410 3.947
R612 VP.n343 VP.n342 3.947
R613 VP.n342 VP.n341 3.947
R614 VP.n747 VP.n746 3.588
R615 VP.n744 VP.n741 3.588
R616 VP.n678 VP.n677 3.588
R617 VP.n675 VP.n672 3.588
R618 VP.n609 VP.n608 3.588
R619 VP.n606 VP.n603 3.588
R620 VP.n539 VP.n538 3.588
R621 VP.n536 VP.n533 3.588
R622 VP.n470 VP.n469 3.588
R623 VP.n467 VP.n464 3.588
R624 VP.n119 VP.n118 3.588
R625 VP.n116 VP.n113 3.588
R626 VP.n50 VP.n49 3.588
R627 VP.n47 VP.n44 3.588
R628 VP.n258 VP.n257 3.588
R629 VP.n255 VP.n252 3.588
R630 VP.n189 VP.n188 3.588
R631 VP.n186 VP.n183 3.588
R632 VP.n397 VP.n396 3.588
R633 VP.n394 VP.n391 3.588
R634 VP.n328 VP.n327 3.588
R635 VP.n325 VP.n322 3.588
R636 VP.n708 VP.n707 3.396
R637 VP.n754 VP.n753 3.229
R638 VP.n753 VP.n752 3.229
R639 VP.n685 VP.n684 3.229
R640 VP.n684 VP.n683 3.229
R641 VP.n616 VP.n615 3.229
R642 VP.n615 VP.n614 3.229
R643 VP.n546 VP.n545 3.229
R644 VP.n545 VP.n544 3.229
R645 VP.n477 VP.n476 3.229
R646 VP.n476 VP.n475 3.229
R647 VP.n126 VP.n125 3.229
R648 VP.n125 VP.n124 3.229
R649 VP.n57 VP.n56 3.229
R650 VP.n56 VP.n55 3.229
R651 VP.n265 VP.n264 3.229
R652 VP.n264 VP.n263 3.229
R653 VP.n196 VP.n195 3.229
R654 VP.n195 VP.n194 3.229
R655 VP.n404 VP.n403 3.229
R656 VP.n403 VP.n402 3.229
R657 VP.n335 VP.n334 3.229
R658 VP.n334 VP.n333 3.229
R659 VP.n431 VP.n430 3.177
R660 VP.n289 VP.n288 3.177
R661 VP.n639 VP.n638 2.984
R662 VP.n570 VP.n569 2.984
R663 VP.n500 VP.n499 2.984
R664 VP.n80 VP.n79 2.984
R665 VP.n11 VP.n10 2.984
R666 VP.n219 VP.n218 2.984
R667 VP.n150 VP.n149 2.984
R668 VP.n358 VP.n357 2.984
R669 VP.n755 VP.n754 2.87
R670 VP.n752 VP.n749 2.87
R671 VP.n686 VP.n685 2.87
R672 VP.n683 VP.n680 2.87
R673 VP.n617 VP.n616 2.87
R674 VP.n614 VP.n611 2.87
R675 VP.n547 VP.n546 2.87
R676 VP.n544 VP.n541 2.87
R677 VP.n478 VP.n477 2.87
R678 VP.n475 VP.n472 2.87
R679 VP.n127 VP.n126 2.87
R680 VP.n124 VP.n121 2.87
R681 VP.n58 VP.n57 2.87
R682 VP.n55 VP.n52 2.87
R683 VP.n266 VP.n265 2.87
R684 VP.n263 VP.n260 2.87
R685 VP.n197 VP.n196 2.87
R686 VP.n194 VP.n191 2.87
R687 VP.n405 VP.n404 2.87
R688 VP.n402 VP.n399 2.87
R689 VP.n336 VP.n335 2.87
R690 VP.n333 VP.n330 2.87
R691 VP.n746 VP.n745 2.511
R692 VP.n745 VP.n744 2.511
R693 VP.n677 VP.n676 2.511
R694 VP.n676 VP.n675 2.511
R695 VP.n608 VP.n607 2.511
R696 VP.n607 VP.n606 2.511
R697 VP.n538 VP.n537 2.511
R698 VP.n537 VP.n536 2.511
R699 VP.n469 VP.n468 2.511
R700 VP.n468 VP.n467 2.511
R701 VP.n118 VP.n117 2.511
R702 VP.n117 VP.n116 2.511
R703 VP.n49 VP.n48 2.511
R704 VP.n48 VP.n47 2.511
R705 VP.n257 VP.n256 2.511
R706 VP.n256 VP.n255 2.511
R707 VP.n188 VP.n187 2.511
R708 VP.n187 VP.n186 2.511
R709 VP.n396 VP.n395 2.511
R710 VP.n395 VP.n394 2.511
R711 VP.n327 VP.n326 2.511
R712 VP.n326 VP.n325 2.511
R713 VP.n763 VP.n762 2.152
R714 VP.n760 VP.n757 2.152
R715 VP.n694 VP.n693 2.152
R716 VP.n691 VP.n688 2.152
R717 VP.n625 VP.n624 2.152
R718 VP.n622 VP.n619 2.152
R719 VP.n555 VP.n554 2.152
R720 VP.n552 VP.n549 2.152
R721 VP.n486 VP.n485 2.152
R722 VP.n483 VP.n480 2.152
R723 VP.n135 VP.n134 2.152
R724 VP.n132 VP.n129 2.152
R725 VP.n66 VP.n65 2.152
R726 VP.n63 VP.n60 2.152
R727 VP.n274 VP.n273 2.152
R728 VP.n271 VP.n268 2.152
R729 VP.n205 VP.n204 2.152
R730 VP.n202 VP.n199 2.152
R731 VP.n413 VP.n412 2.152
R732 VP.n410 VP.n407 2.152
R733 VP.n344 VP.n343 2.152
R734 VP.n341 VP.n338 2.152
R735 VP.n738 VP.n737 1.794
R736 VP.n737 VP.n736 1.794
R737 VP.n669 VP.n668 1.794
R738 VP.n668 VP.n667 1.794
R739 VP.n600 VP.n599 1.794
R740 VP.n599 VP.n598 1.794
R741 VP.n530 VP.n529 1.794
R742 VP.n529 VP.n528 1.794
R743 VP.n461 VP.n460 1.794
R744 VP.n460 VP.n459 1.794
R745 VP.n110 VP.n109 1.794
R746 VP.n109 VP.n108 1.794
R747 VP.n41 VP.n40 1.794
R748 VP.n40 VP.n39 1.794
R749 VP.n249 VP.n248 1.794
R750 VP.n248 VP.n247 1.794
R751 VP.n180 VP.n179 1.794
R752 VP.n179 VP.n178 1.794
R753 VP.n388 VP.n387 1.794
R754 VP.n387 VP.n386 1.794
R755 VP.n319 VP.n318 1.794
R756 VP.n318 VP.n317 1.794
R757 VP.n698 VP.n697 1.076
R758 VP.n701 VP.n698 1.076
R759 VP.n629 VP.n628 1.076
R760 VP.n632 VP.n629 1.076
R761 VP.n560 VP.n559 1.076
R762 VP.n563 VP.n560 1.076
R763 VP.n490 VP.n489 1.076
R764 VP.n493 VP.n490 1.076
R765 VP.n421 VP.n420 1.076
R766 VP.n424 VP.n421 1.076
R767 VP.n70 VP.n69 1.076
R768 VP.n73 VP.n70 1.076
R769 VP.n1 VP.n0 1.076
R770 VP.n4 VP.n1 1.076
R771 VP.n209 VP.n208 1.076
R772 VP.n212 VP.n209 1.076
R773 VP.n140 VP.n139 1.076
R774 VP.n143 VP.n140 1.076
R775 VP.n348 VP.n347 1.076
R776 VP.n351 VP.n348 1.076
R777 VP.n279 VP.n278 1.076
R778 VP.n282 VP.n279 1.076
R779 VP.n418 VP.n417 0.491
R780 VP.n419 VP.n418 0.483
R781 VP.n706 VP.n705 0.358
R782 VP.n709 VP.n706 0.358
R783 VP.n637 VP.n636 0.358
R784 VP.n640 VP.n637 0.358
R785 VP.n568 VP.n567 0.358
R786 VP.n571 VP.n568 0.358
R787 VP.n498 VP.n497 0.358
R788 VP.n501 VP.n498 0.358
R789 VP.n429 VP.n428 0.358
R790 VP.n432 VP.n429 0.358
R791 VP.n78 VP.n77 0.358
R792 VP.n81 VP.n78 0.358
R793 VP.n9 VP.n8 0.358
R794 VP.n12 VP.n9 0.358
R795 VP.n217 VP.n216 0.358
R796 VP.n220 VP.n217 0.358
R797 VP.n148 VP.n147 0.358
R798 VP.n151 VP.n148 0.358
R799 VP.n356 VP.n355 0.358
R800 VP.n359 VP.n356 0.358
R801 VP.n287 VP.n286 0.358
R802 VP.n290 VP.n287 0.358
R803 VP VP.n769 0.341
R804 VP.n728 VP.n727 0.144
R805 VP.n725 VP.n724 0.144
R806 VP.n722 VP.n721 0.144
R807 VP.n719 VP.n718 0.144
R808 VP.n716 VP.n715 0.144
R809 VP.n659 VP.n658 0.144
R810 VP.n656 VP.n655 0.144
R811 VP.n653 VP.n652 0.144
R812 VP.n650 VP.n649 0.144